IEEE_14_OpenDSS/IEEE14Gen.DSS
/*
Network data extracted from MatPower Version 7.1.
Bus Voltage KV_LL = 1kV (Assumed based on ETAP IEEE14Bus Model)
*/

!New Generator.B1	Bus1=B1	kV=1	kW=232393.272353258	Model=3	Vpu=1.06	Maxkvar=10000	Minkvar=0		!	kvar=-16549.3005420882
New Generator.B2	Bus1=B2	kV=1	kW=40000			Model=3	Vpu=1.045	Maxkvar=50000	Minkvar=-40000	!	kvar=43557.1001335284
New Generator.B3	Bus1=B3	kV=1	kW=1				Model=3	Vpu=1.01	Maxkvar=40000	Minkvar=0		!	kvar=25075.3484954099
New Generator.B6	Bus1=B6	kV=1	kW=1				Model=3	Vpu=1.07	Maxkvar=24000	Minkvar=-6000	!	kvar=12730.9444046012
New Generator.B8	Bus1=B8	kV=1	kW=1				Model=3	Vpu=1.09	Maxkvar=24000	Minkvar=-6000	!	kvar=17623.4513663992

/*
Generator details based on Bus Voltages as below
BUS NAME	BUS NO	BASE KV
'Bus 1     HV'	1	132
'Bus 2     HV'	2	132
'Bus 3     HV'	3	132
'Bus 4     HV'	4	132
'Bus 5     HV'	5	132
'Bus 6     LV'	6	33
'Bus 7     ZV'	7	1
'Bus 8     TV'	8	11
'Bus 9     LV'	9	33
'Bus 10    LV'	10	33
'Bus 11    LV'	11	33
'Bus 12    LV'	12	33
'Bus 13    LV'	13	33
'Bus 14    LV'	14	33

!New Generator.B1	Bus1=B1	kV=132	kW=232393.272353258	Model=3	Vpu=1.06	Maxkvar=10000	Minkvar=0		!	kvar=-16549.3005420882
New Generator.B2	Bus1=B2	kV=132	kW=40000			Model=3	Vpu=1.045	Maxkvar=50000	Minkvar=-40000	!	kvar=43557.1001335284
New Generator.B3	Bus1=B3	kV=132	kW=1				Model=3	Vpu=1.01	Maxkvar=40000	Minkvar=0		!	kvar=25075.3484954099
New Generator.B6	Bus1=B6	kV=33	kW=1				Model=3	Vpu=1.07	Maxkvar=24000	Minkvar=-6000	!	kvar=12730.9444046012
New Generator.B8	Bus1=B8	kV=11	kW=1				Model=3	Vpu=1.09	Maxkvar=24000	Minkvar=-6000	!	kvar=17623.4513663992
 */
