IEEE_14_OpenDSS/IEEE_14_Power_elem_MVA.txt

CIRCUIT ELEMENT POWER FLOW

(Power Flow into element from indicated Bus)

Power Delivery Elements

  Bus Phase     MW     +j   Mvar         MVA         PF

ELEMENT = "Vsource.source"
B1      1       -77.5 +j      5.8       77.8      -0.9972
B1      2       -77.5 +j      5.8       77.8      -0.9972
B1      3       -77.5 +j      5.8       77.8      -0.9972
   TERMINAL TOTAL  -232.6 +j     17.5      233.3      -0.9972
B1      0         0.0 +j      0.0        0.0       1.0000
B1      0         0.0 +j      0.0        0.0       1.0000
B1      0         0.0 +j      0.0        0.0       1.0000
   TERMINAL TOTAL     0.0 +j      0.0        0.0       1.0000

ELEMENT = "Line.1-2"
B1       1        52.4 +j     -7.1       52.8      -0.9909
B1       2        52.4 +j     -7.1       52.8      -0.9909
B1       3        52.4 +j     -7.1       52.8      -0.9909
   TERMINAL TOTAL   157.1 +j    -21.4      158.5      -0.9909
B2       1       -50.9 +j      9.6       51.8      -0.9828
B2       2       -50.9 +j      9.6       51.8      -0.9828
B2       3       -50.9 +j      9.6       51.8      -0.9828
   TERMINAL TOTAL  -152.7 +j     28.7      155.4      -0.9828

ELEMENT = "Line.1-5"
B1       1        25.2 +j      1.3       25.2       0.9987
B1       2        25.2 +j      1.3       25.2       0.9987
B1       3        25.2 +j      1.3       25.2       0.9987
   TERMINAL TOTAL    75.6 +j      3.8       75.7       0.9987
B5       1       -24.3 +j      0.8       24.3      -0.9995
B5       2       -24.3 +j      0.8       24.3      -0.9995
B5       3       -24.3 +j      0.8       24.3      -0.9995
   TERMINAL TOTAL   -72.8 +j      2.3       72.9      -0.9995

ELEMENT = "Line.2-3"
B2       1        24.4 +j      1.4       24.5       0.9984
B2       2        24.4 +j      1.4       24.5       0.9984
B2       3        24.4 +j      1.4       24.5       0.9984
   TERMINAL TOTAL    73.2 +j      4.2       73.4       0.9984
B3       1       -23.6 +j      0.3       23.6      -0.9999
B3       2       -23.6 +j      0.3       23.6      -0.9999
B3       3       -23.6 +j      0.3       23.6      -0.9999
   TERMINAL TOTAL   -70.9 +j      1.0       70.9      -0.9999

ELEMENT = "Line.2-4"
B2       1        18.7 +j     -0.4       18.7      -0.9998
B2       2        18.7 +j     -0.4       18.7      -0.9998
B2       3        18.7 +j     -0.4       18.7      -0.9998
   TERMINAL TOTAL    56.2 +j     -1.3       56.2      -0.9998
B4       1       -18.2 +j      0.9       18.2      -0.9987
B4       2       -18.2 +j      0.9       18.2      -0.9987
B4       3       -18.2 +j      0.9       18.2      -0.9987
   TERMINAL TOTAL   -54.5 +j      2.7       54.6      -0.9987

ELEMENT = "Line.2-5"
B2       1        13.9 +j      0.5       13.9       0.9994
B2       2        13.9 +j      0.5       13.9       0.9994
B2       3        13.9 +j      0.5       13.9       0.9994
   TERMINAL TOTAL    41.6 +j      1.4       41.6       0.9994
B5       1       -13.6 +j     -0.8       13.6       0.9983
B5       2       -13.6 +j     -0.8       13.6       0.9983
B5       3       -13.6 +j     -0.8       13.6       0.9983
   TERMINAL TOTAL   -40.7 +j     -2.4       40.8       0.9983

ELEMENT = "Line.3-4"
B3       1        -7.8 +j      1.4        7.9      -0.9851
B3       2        -7.8 +j      1.4        7.9      -0.9851
B3       3        -7.8 +j      1.4        7.9      -0.9851
   TERMINAL TOTAL   -23.3 +j      4.1       23.7      -0.9851
B4       1         7.9 +j     -1.5        8.0      -0.9829
B4       2         7.9 +j     -1.5        8.0      -0.9829
B4       3         7.9 +j     -1.5        8.0      -0.9829
   TERMINAL TOTAL    23.7 +j     -4.4       24.1      -0.9829

ELEMENT = "Line.4-5"
B4       1       -20.4 +j      5.2       21.0      -0.9688
B4       2       -20.4 +j      5.2       21.0      -0.9688
B4       3       -20.4 +j      5.2       21.0      -0.9688
   TERMINAL TOTAL   -61.2 +j     15.6       63.1      -0.9688
B5       1        20.6 +j     -4.7       21.1      -0.9751
B5       2        20.6 +j     -4.7       21.1      -0.9751
B5       3        20.6 +j     -4.7       21.1      -0.9751
   TERMINAL TOTAL    61.7 +j    -14.0       63.2      -0.9751

ELEMENT = "Line.6-11"
B6       1         2.4 +j      1.2        2.7       0.8971
B6       2         2.4 +j      1.2        2.7       0.8971
B6       3         2.4 +j      1.2        2.7       0.8971
   TERMINAL TOTAL     7.3 +j      3.6        8.2       0.8971
B11      1        -2.4 +j     -1.2        2.7       0.9014
B11      2        -2.4 +j     -1.2        2.7       0.9014
B11      3        -2.4 +j     -1.2        2.7       0.9014
   TERMINAL TOTAL    -7.3 +j     -3.5        8.1       0.9014

ELEMENT = "Line.6-12"
B6       1         2.6 +j      0.8        2.7       0.9517
B6       2         2.6 +j      0.8        2.7       0.9517
B6       3         2.6 +j      0.8        2.7       0.9517
   TERMINAL TOTAL     7.8 +j      2.5        8.2       0.9517
B12      1        -2.6 +j     -0.8        2.7       0.9562
B12      2        -2.6 +j     -0.8        2.7       0.9562
B12      3        -2.6 +j     -0.8        2.7       0.9562
   TERMINAL TOTAL    -7.7 +j     -2.4        8.1       0.9562

ELEMENT = "Line.6-13"
B6       1         5.9 +j      2.4        6.4       0.9258
B6       2         5.9 +j      2.4        6.4       0.9258
B6       3         5.9 +j      2.4        6.4       0.9258
   TERMINAL TOTAL    17.7 +j      7.2       19.2       0.9258
B13      1        -5.8 +j     -2.3        6.3       0.9319
B13      2        -5.8 +j     -2.3        6.3       0.9319
B13      3        -5.8 +j     -2.3        6.3       0.9319
   TERMINAL TOTAL   -17.5 +j     -6.8       18.8       0.9319

ELEMENT = "Line.7-8"
B7       1        -0.0 +j     -5.7        5.7       0.0001
B7       2        -0.0 +j     -5.7        5.7       0.0001
B7       3        -0.0 +j     -5.7        5.7       0.0001
   TERMINAL TOTAL    -0.0 +j    -17.0       17.0       0.0001
B8       1         0.0 +j      5.8        5.8       0.0001
B8       2         0.0 +j      5.8        5.8       0.0001
B8       3         0.0 +j      5.8        5.8       0.0001
   TERMINAL TOTAL     0.0 +j     17.5       17.5       0.0001

ELEMENT = "Line.7-9"
B7       1         9.4 +j      1.9        9.6       0.9800
B7       2         9.4 +j      1.9        9.6       0.9800
B7       3         9.4 +j      1.9        9.6       0.9800
   TERMINAL TOTAL    28.1 +j      5.7       28.7       0.9800
B9       1        -9.4 +j     -1.6        9.5       0.9851
B9       2        -9.4 +j     -1.6        9.5       0.9851
B9       3        -9.4 +j     -1.6        9.5       0.9851
   TERMINAL TOTAL   -28.1 +j     -4.9       28.5       0.9851

ELEMENT = "Line.9-10"
B9       1         1.8 +j      1.4        2.2       0.7834
B9       2         1.8 +j      1.4        2.2       0.7834
B9       3         1.8 +j      1.4        2.2       0.7834
   TERMINAL TOTAL     5.3 +j      4.2        6.7       0.7834
B10      1        -1.8 +j     -1.4        2.2       0.7851
B10      2        -1.8 +j     -1.4        2.2       0.7851
B10      3        -1.8 +j     -1.4        2.2       0.7851
   TERMINAL TOTAL    -5.3 +j     -4.1        6.7       0.7851

ELEMENT = "Line.9-14"
B9       1         3.1 +j      1.2        3.4       0.9351
B9       2         3.1 +j      1.2        3.4       0.9351
B9       3         3.1 +j      1.2        3.4       0.9351
   TERMINAL TOTAL     9.4 +j      3.6       10.1       0.9351
B14      1        -3.1 +j     -1.1        3.3       0.9417
B14      2        -3.1 +j     -1.1        3.3       0.9417
B14      3        -3.1 +j     -1.1        3.3       0.9417
   TERMINAL TOTAL    -9.3 +j     -3.3        9.9       0.9417

ELEMENT = "Line.10-11"
B10      1        -1.2 +j     -0.6        1.4       0.9146
B10      2        -1.2 +j     -0.6        1.4       0.9146
B10      3        -1.2 +j     -0.6        1.4       0.9146
   TERMINAL TOTAL    -3.7 +j     -1.7        4.1       0.9146
B11      1         1.3 +j      0.6        1.4       0.9124
B11      2         1.3 +j      0.6        1.4       0.9124
B11      3         1.3 +j      0.6        1.4       0.9124
   TERMINAL TOTAL     3.8 +j      1.7        4.1       0.9124

ELEMENT = "Line.12-13"
B12      1         0.5 +j      0.3        0.6       0.9044
B12      2         0.5 +j      0.3        0.6       0.9044
B12      3         0.5 +j      0.3        0.6       0.9044
   TERMINAL TOTAL     1.6 +j      0.8        1.8       0.9044
B13      1        -0.5 +j     -0.3        0.6       0.9049
B13      2        -0.5 +j     -0.3        0.6       0.9049
B13      3        -0.5 +j     -0.3        0.6       0.9049
   TERMINAL TOTAL    -1.6 +j     -0.8        1.8       0.9049

ELEMENT = "Line.13-14"
B13      1         1.9 +j      0.6        2.0       0.9536
B13      2         1.9 +j      0.6        2.0       0.9536
B13      3         1.9 +j      0.6        2.0       0.9536
   TERMINAL TOTAL     5.6 +j      1.8        5.9       0.9536
B14      1        -1.9 +j     -0.6        1.9       0.9581
B14      2        -1.9 +j     -0.6        1.9       0.9581
B14      3        -1.9 +j     -0.6        1.9       0.9581
   TERMINAL TOTAL    -5.6 +j     -1.7        5.8       0.9581

ELEMENT = "Transformer.4-7"
B4       1         9.4 +j     -3.2        9.9      -0.9462
B4       2         9.4 +j     -3.2        9.9      -0.9462
B4       3         9.4 +j     -3.2        9.9      -0.9462
B4       0         0.0 +j     -0.0        0.0       1.0000
   TERMINAL TOTAL    28.1 +j     -9.6       29.7      -0.9462
B7       1        -9.4 +j      3.8       10.1      -0.9276
B7       2        -9.4 +j      3.8       10.1      -0.9276
B7       3        -9.4 +j      3.8       10.1      -0.9276
B7       0         0.0 +j      0.0        0.0       1.0000
   TERMINAL TOTAL   -28.1 +j     11.3       30.3      -0.9276

ELEMENT = "Transformer.4-9"
B4       1         5.4 +j     -0.1        5.4      -0.9997
B4       2         5.4 +j     -0.1        5.4      -0.9997
B4       3         5.4 +j     -0.1        5.4      -0.9997
B4       0         0.0 +j      0.0        0.0       1.0000
   TERMINAL TOTAL    16.1 +j     -0.4       16.1      -0.9997
B9       1        -5.4 +j      0.6        5.4      -0.9943
B9       2        -5.4 +j      0.6        5.4      -0.9943
B9       3        -5.4 +j      0.6        5.4      -0.9943
B9       0         0.0 +j     -0.0        0.0       1.0000
   TERMINAL TOTAL   -16.1 +j      1.7       16.2      -0.9943

ELEMENT = "Transformer.5-6"
B5       1        14.7 +j      4.2       15.3       0.9624
B5       2        14.7 +j      4.2       15.3       0.9624
B5       3        14.7 +j      4.2       15.3       0.9624
B5       0        -0.0 +j      0.0        0.0       1.0000
   TERMINAL TOTAL    44.2 +j     12.5       46.0       0.9624
B6       1       -14.7 +j     -2.7       15.0       0.9839
B6       2       -14.7 +j     -2.7       15.0       0.9839
B6       3       -14.7 +j     -2.7       15.0       0.9839
B6       0         0.0 +j      0.0        0.0       1.0000
   TERMINAL TOTAL   -44.2 +j     -8.0       45.0       0.9839

ELEMENT = "Capacitor.b9"
B9       1         0.0 +j     -7.1        7.1       1.0000
B9       2         0.0 +j     -7.1        7.1       1.0000
B9       3         0.0 +j     -7.1        7.1       1.0000
   TERMINAL TOTAL     0.0 +j    -21.2       21.2       1.0000
B9       0        -0.0 +j      0.0        0.0       1.0000
B9       0         0.0 +j     -0.0        0.0       1.0000
B9       0         0.0 +j      0.0        0.0       1.0000
   TERMINAL TOTAL     0.0 +j      0.0        0.0       1.0000

= = = = = = = = = = = = = = = = = = =  = = = = = = = = = = =  = =

Power Conversion Elements

  Bus Phase     MW   +j  Mvar         MVA         PF

ELEMENT = "Load.b2"
B2       1       7.2 +j    4.2        8.4       0.8630
B2       2       7.2 +j    4.2        8.4       0.8630
B2       3       7.2 +j    4.2        8.4       0.8630
B2       0       0.0 +j    0.0        0.0       1.0000
  TERMINAL TOTAL     21.7 +j     12.7       25.1       0.8630

ELEMENT = "Load.b3"
B3       1      31.4 +j    6.3       32.0       0.9803
B3       2      31.4 +j    6.3       32.0       0.9803
B3       3      31.4 +j    6.3       32.0       0.9803
B3       0       0.0 +j    0.0        0.0       1.0000
  TERMINAL TOTAL     94.2 +j     19.0       96.1       0.9803

ELEMENT = "Load.b4"
B4       1      15.9 +j   -1.3       16.0      -0.9967
B4       2      15.9 +j   -1.3       16.0      -0.9967
B4       3      15.9 +j   -1.3       16.0      -0.9967
B4       0       0.0 +j    0.0        0.0       1.0000
  TERMINAL TOTAL     47.8 +j     -3.9       48.0      -0.9967

ELEMENT = "Load.b5"
B5       1       2.5 +j    0.5        2.6       0.9785
B5       2       2.5 +j    0.5        2.6       0.9785
B5       3       2.5 +j    0.5        2.6       0.9785
B5       0       0.0 +j    0.0        0.0       1.0000
  TERMINAL TOTAL      7.6 +j      1.6        7.8       0.9785

ELEMENT = "Load.b6"
B6       1       3.8 +j    2.5        4.6       0.8309
B6       2       3.8 +j    2.5        4.6       0.8309
B6       3       3.8 +j    2.5        4.6       0.8309
B6       0      -0.0 +j    0.0        0.0       1.0000
  TERMINAL TOTAL     11.4 +j      7.6       13.7       0.8309

ELEMENT = "Load.b9"
B9       1       9.8 +j    5.5       11.3       0.8715
B9       2       9.8 +j    5.5       11.3       0.8715
B9       3       9.8 +j    5.5       11.3       0.8715
B9       0       0.0 +j    0.0        0.0       1.0000
  TERMINAL TOTAL     29.5 +j     16.6       33.9       0.8715

ELEMENT = "Load.b10"
B10      1       3.0 +j    1.9        3.6       0.8406
B10      2       3.0 +j    1.9        3.6       0.8406
B10      3       3.0 +j    1.9        3.6       0.8406
B10      0       0.0 +j    0.0        0.0       1.0000
  TERMINAL TOTAL      9.0 +j      5.8       10.7       0.8406

ELEMENT = "Load.b11"
B11      1       1.2 +j    0.6        1.3       0.8893
B11      2       1.2 +j    0.6        1.3       0.8893
B11      3       1.2 +j    0.6        1.3       0.8893
B11      0       0.0 +j    0.0        0.0       1.0000
  TERMINAL TOTAL      3.5 +j      1.8        3.9       0.8893

ELEMENT = "Load.b12"
B12      1       2.0 +j    0.5        2.1       0.9673
B12      2       2.0 +j    0.5        2.1       0.9673
B12      3       2.0 +j    0.5        2.1       0.9673
B12      0       0.0 +j    0.0        0.0       1.0000
  TERMINAL TOTAL      6.1 +j      1.6        6.3       0.9673

ELEMENT = "Load.b13"
B13      1       4.5 +j    1.9        4.9       0.9188
B13      2       4.5 +j    1.9        4.9       0.9188
B13      3       4.5 +j    1.9        4.9       0.9188
B13      0       0.0 +j    0.0        0.0       1.0000
  TERMINAL TOTAL     13.5 +j      5.8       14.7       0.9188

ELEMENT = "Load.b14"
B14      1       5.0 +j    1.7        5.2       0.9480
B14      2       5.0 +j    1.7        5.2       0.9480
B14      3       5.0 +j    1.7        5.2       0.9480
B14      0       0.0 +j    0.0        0.0       1.0000
  TERMINAL TOTAL     14.9 +j      5.0       15.7       0.9480

ELEMENT = "Generator.b2"
B2       1     -13.3 +j  -15.3       20.3       0.6582
B2       2     -13.3 +j  -15.3       20.3       0.6582
B2       3     -13.3 +j  -15.3       20.3       0.6582
B2       0      -0.0 +j    0.0        0.0       1.0000
  TERMINAL TOTAL    -40.0 +j    -45.8       60.8       0.6582

ELEMENT = "Generator.b3"
B3       1      -0.0 +j   -8.0        8.0       0.0001
B3       2      -0.0 +j   -8.0        8.0       0.0001
B3       3      -0.0 +j   -8.0        8.0       0.0001
B3       0       0.0 +j   -0.0        0.0       1.0000
  TERMINAL TOTAL     -0.0 +j    -24.0       24.0       0.0001

ELEMENT = "Generator.b6"
B6       1      -0.0 +j   -4.3        4.3       0.0001
B6       2      -0.0 +j   -4.3        4.3       0.0001
B6       3      -0.0 +j   -4.3        4.3       0.0001
B6       0       0.0 +j   -0.0        0.0       1.0000
  TERMINAL TOTAL     -0.0 +j    -13.0       13.0       0.0001

ELEMENT = "Generator.b8"
B8       1      -0.0 +j   -5.8        5.8       0.0001
B8       2      -0.0 +j   -5.8        5.8       0.0001
B8       3      -0.0 +j   -5.8        5.8       0.0001
B8       0       0.0 +j   -0.0        0.0       1.0000
  TERMINAL TOTAL     -0.0 +j    -17.5       17.5       0.0001


Total Circuit Losses =   13.4 +j   30.2
