IEEE_14_OpenDSS/IEEE_14_Power_seq_kVA.txt

SYMMETRICAL COMPONENT POWERS BY CIRCUIT ELEMENT (first 3 phases)                                     Excess Power

Element Term    P1(kW)   Q1(kvar)       P2         Q2      P0      Q0       P_Norm      Q_Norm     P_Emerg    Q_Emerg

"Vsource.source"  1  -232645.6    17533.3        0.0        0.0     0.0     0.0
"Vsource.source"  2        0.0        0.0        0.0        0.0     0.0     0.0
"Line.1-2"  1   157056.8   -21357.3        0.0        0.0     0.0     0.0   156329.1   -21258.4   155965.3   -21208.9
"Line.1-2"  2  -152743.8    28673.4        0.0        0.0     0.0     0.0
"Line.1-5"  1    75588.8     3824.0        0.0        0.0     0.0     0.0    74855.3     3786.9    74488.6     3768.3
"Line.1-5"  2   -72820.4     2283.0        0.0        0.0     0.0     0.0
"Line.2-3"  1    73232.3     4200.7        0.0        0.0     0.0     0.0    72509.1     4159.2    72147.6     4138.5
"Line.2-3"  2   -70908.2      966.2        0.0        0.0     0.0     0.0
"Line.2-4"  1    56214.4    -1251.6        0.0        0.0     0.0     0.0    55490.2    -1235.4    55128.1    -1227.4
"Line.2-4"  2   -54534.3     2730.6        0.0        0.0     0.0     0.0
"Line.2-5"  1    41596.6     1431.5        0.0        0.0     0.0     0.0    40872.7     1406.6    40510.7     1394.1
"Line.2-5"  2   -40689.4    -2350.9        0.0        0.0     0.0     0.0
"Line.3-4"  1   -23305.6     4071.3        0.0        0.0     0.0     0.0   -22616.7     3951.0   -22272.3     3890.8
"Line.3-4"  2    23677.5    -4436.6        0.0        0.0     0.0     0.0
"Line.4-5"  1   -61154.6    15640.0        0.0        0.0     0.0     0.0   -60471.5    15465.3   -60130.0    15378.0
"Line.4-5"  2    61668.2   -14019.8        0.0        0.0     0.0     0.0
"Line.6-11"  1     7317.2     3603.0        0.0        0.0     0.0     0.0     6652.1     3275.5     6319.6     3111.8
"Line.6-11"  2    -7262.0    -3487.5        0.0        0.0     0.0     0.0
"Line.6-12"  1     7782.4     2509.5        0.0        0.0     0.0     0.0     7076.8     2282.0     6724.0     2168.2
"Line.6-12"  2    -7710.6    -2360.1        0.0        0.0     0.0     0.0
"Line.6-13"  1    17729.8     7237.9        0.0        0.0     0.0     0.0    17043.4     6957.7    16700.3     6817.6
"Line.6-13"  2   -17517.9    -6820.7        0.0        0.0     0.0     0.0
"Line.7-8"  1       -1.1   -17027.6        0.0        0.0     0.0     0.0       -1.0   -16292.3       -1.0   -15924.6
"Line.7-8"  2        1.1    17481.0        0.0        0.0     0.0     0.0
"Line.7-9"  1    28110.7     5705.6        0.0        0.0     0.0     0.0    27390.0     5559.4    27029.7     5486.2
"Line.7-9"  2   -28110.7    -4902.1        0.0        0.0     0.0     0.0
"Line.9-10"  1     5263.5     4176.1        0.0        0.0     0.0     0.0     4690.5     3721.5     4404.0     3494.1
"Line.9-10"  2    -5250.7    -4141.9        0.0        0.0     0.0     0.0
"Line.9-14"  1     9447.5     3581.9        0.0        0.0     0.0     0.0     8763.5     3322.6     8421.5     3192.9
"Line.9-14"  2    -9331.1    -3334.4        0.0        0.0     0.0     0.0
"Line.10-11"  1    -3749.6    -1658.3        0.0        0.0     0.0     0.0    -3083.7    -1363.8    -2750.7    -1216.5
"Line.10-11"  2     3762.1     1687.5        0.0        0.0     0.0     0.0
"Line.12-13"  1     1610.8      760.2        0.0        0.0     0.0     0.0      949.7      448.2      619.1      292.2
"Line.12-13"  2    -1604.5     -754.5        0.0        0.0     0.0     0.0
"Line.13-14"  1     5622.9     1775.4        0.0        0.0     0.0     0.0     4928.9     1556.3     4581.9     1446.7
"Line.13-14"  2    -5569.0    -1665.7        0.0        0.0     0.0     0.0
"Transformer.4-7"  1    28109.6    -9617.2        0.0        0.0     0.0     0.0        0.0        0.0        0.0        0.0
"Transformer.4-7"  2   -28109.6    11322.0        0.0        0.0     0.0     0.0
"Transformer.4-9"  1    16101.6     -416.8        0.0        0.0     0.0     0.0        0.0        0.0        0.0        0.0
"Transformer.4-9"  2   -16101.6     1725.1        0.0        0.0     0.0     0.0
"Transformer.5-6"  1    44241.7    12487.7        0.0        0.0     0.0     0.0        0.0        0.0        0.0        0.0
"Transformer.5-6"  2   -44241.7    -8037.4        0.0        0.0     0.0     0.0
"Capacitor.b9"  1        0.0   -21181.7        0.0        0.0     0.0     0.0        0.0        0.0        0.0        0.0
"Capacitor.b9"  2        0.0        0.0        0.0        0.0     0.0     0.0
"Load.b2"  1    21698.5    12699.6        0.0        0.0     0.0     0.0
"Load.b3"  1    94207.9    18999.6        0.0        0.0     0.0     0.0
"Load.b4"  1    47800.0    -3900.1        0.0        0.0     0.0     0.0
"Load.b5"  1     7599.9     1600.0        0.0        0.0     0.0     0.0
"Load.b6"  1    11413.4     7643.0        0.0        0.0     0.0     0.0
"Load.b9"  1    29500.7    16600.2        0.0        0.0     0.0     0.0
"Load.b10"  1     9000.1     5800.1        0.0        0.0     0.0     0.0
"Load.b11"  1     3500.0     1800.0        0.0        0.0     0.0     0.0
"Load.b12"  1     6099.9     1600.0        0.0        0.0     0.0     0.0
"Load.b13"  1    13499.8     5800.0        0.0        0.0     0.0     0.0
"Load.b14"  1    14900.1     5000.0        0.0        0.0     0.0     0.0
"Generator.b2"  1   -39996.8   -45752.4        0.0        0.0     0.0     0.0
"Generator.b3"  1       -1.5   -24040.6        0.0        0.0     0.0     0.0
"Generator.b6"  1       -0.9   -12955.9        0.0        0.0     0.0     0.0
"Generator.b8"  1       -1.1   -17481.0        0.0        0.0     0.0     0.0

Total Circuit Losses = 13419.2 +j 30233.3
