IEEE_14_OpenDSS/IEEE_14_VLN.txt

SYMMETRICAL COMPONENT VOLTAGES BY BUS (for 3-phase buses)

Bus   Mag:   V1 (kV)    p.u.     V2 (kV)   %V2/V1    V0 (kV)    %V0/V1

b1               0.612       1.06  3.977E-11   6.499E-9 3.981E-11  6.505E-9
b2              0.6036      1.046  4.658E-11   7.717E-9  2.89E-10  4.787E-8
b5              0.5886       1.02  1.123E-10   1.909E-8 2.953E-10  5.016E-8
b3              0.5827      1.009  1.631E-10   2.798E-8 8.228E-10  1.412E-7
b4              0.5875      1.018  1.409E-10   2.398E-8  1.475E-9   2.51E-7
b6              0.6178       1.07  2.026E-10   3.279E-8 3.119E-10  5.048E-8
b11             0.6102      1.057  2.322E-10   3.805E-8 7.403E-10  1.213E-7
b12             0.6092      1.055  2.176E-10   3.571E-8 5.723E-10  9.393E-8
b13             0.6065       1.05  2.244E-10     3.7E-8 7.148E-10  1.179E-7
b7              0.6128      1.061  2.216E-10   3.616E-8  1.503E-9  2.452E-7
b8              0.6291       1.09    2.3E-10   3.657E-8  1.195E-9  1.899E-7
b9              0.6096      1.056  2.584E-10   4.238E-8  1.641E-9  2.692E-7
b10             0.6068      1.051   2.56E-10   4.219E-8  1.118E-9  1.843E-7
b14             0.5978      1.035   2.66E-10    4.45E-8  1.079E-9  1.805E-7
