IEEE_14_OpenDSS/IEEE_14_VLN_Node.txt

LINE-GROUND and LINE-LINE VOLTAGES BY BUS & NODE

Bus  Node    VLN (kV)   Angle      pu     Base kV    Node-Node   VLL (kV)  Angle      pu

B1 ......... 1      0.61199 /_    0.0      1.06     1.000        1-2       1.06 /_   30.0      1.06
   -         2      0.61199 /_ -120.0      1.06     1.000        2-3       1.06 /_  -90.0      1.06
   -         3      0.61199 /_  120.0      1.06     1.000        3-1       1.06 /_  150.0      1.06
B2 ......... 1      0.60363 /_   -5.0    1.0455     1.000        1-2     1.0455 /_   25.0    1.0455
   -         2      0.60363 /_ -125.0    1.0455     1.000        2-3     1.0455 /_  -95.0    1.0455
   -         3      0.60363 /_  115.0    1.0455     1.000        3-1     1.0455 /_  145.0    1.0455
B5 ......... 1      0.58864 /_   -8.8    1.0196     1.000        1-2     1.0196 /_   21.2    1.0196
   -         2      0.58864 /_ -128.8    1.0196     1.000        2-3     1.0196 /_  -98.8    1.0196
   -         3      0.58864 /_  111.2    1.0196     1.000        3-1     1.0196 /_  141.2    1.0196
B3 ......... 1      0.58271 /_  -12.7    1.0093     1.000        1-2     1.0093 /_   17.3    1.0093
   -         2      0.58271 /_ -132.7    1.0093     1.000        2-3     1.0093 /_ -102.7    1.0093
   -         3      0.58271 /_  107.3    1.0093     1.000        3-1     1.0093 /_  137.3    1.0093
B4 ......... 1      0.58754 /_  -10.3    1.0176     1.000        1-2     1.0176 /_   19.7    1.0176
   -         2      0.58754 /_ -130.3    1.0176     1.000        2-3     1.0176 /_ -100.3    1.0176
   -         3      0.58754 /_  109.7    1.0176     1.000        3-1     1.0176 /_  139.7    1.0176
B6 ......... 1      0.61779 /_  -14.3      1.07     1.000        1-2       1.07 /_   15.7      1.07
   -         2      0.61779 /_ -134.3      1.07     1.000        2-3       1.07 /_ -104.3      1.07
   -         3      0.61779 /_  105.7      1.07     1.000        3-1       1.07 /_  135.7      1.07
B11 ........ 1       0.6102 /_  -14.8    1.0569     1.000        1-2     1.0569 /_   15.2    1.0569
   -         2       0.6102 /_ -134.8    1.0569     1.000        2-3     1.0569 /_ -104.8    1.0569
   -         3       0.6102 /_  105.2    1.0569     1.000        3-1     1.0569 /_  135.2    1.0569
B12 ........ 1      0.60923 /_  -15.1    1.0552     1.000        1-2     1.0552 /_   14.9    1.0552
   -         2      0.60923 /_ -135.1    1.0552     1.000        2-3     1.0552 /_ -105.1    1.0552
   -         3      0.60923 /_  104.9    1.0552     1.000        3-1     1.0552 /_  134.9    1.0552
B13 ........ 1      0.60645 /_  -15.2    1.0504     1.000        1-2     1.0504 /_   14.8    1.0504
   -         2      0.60645 /_ -135.2    1.0504     1.000        2-3     1.0504 /_ -105.2    1.0504
   -         3      0.60645 /_  104.8    1.0504     1.000        3-1     1.0504 /_  134.8    1.0504
B7 ......... 1      0.61278 /_  -13.4    1.0614     1.000        1-2     1.0614 /_   16.6    1.0614
   -         2      0.61278 /_ -133.4    1.0614     1.000        2-3     1.0614 /_ -103.4    1.0614
   -         3      0.61278 /_  106.6    1.0614     1.000        3-1     1.0614 /_  136.6    1.0614
B8 ......... 1       0.6291 /_  -13.4    1.0896     1.000        1-2     1.0896 /_   16.6    1.0896
   -         2       0.6291 /_ -133.4    1.0896     1.000        2-3     1.0896 /_ -103.4    1.0896
   -         3       0.6291 /_  106.6    1.0896     1.000        3-1     1.0896 /_  136.6    1.0896
B9 ......... 1       0.6096 /_  -15.0    1.0559     1.000        1-2     1.0559 /_   15.0    1.0559
   -         2       0.6096 /_ -135.0    1.0559     1.000        2-3     1.0559 /_ -105.0    1.0559
   -         3       0.6096 /_  105.0    1.0559     1.000        3-1     1.0559 /_  135.0    1.0559
B10 ........ 1      0.60675 /_  -15.1    1.0509     1.000        1-2     1.0509 /_   14.9    1.0509
   -         2      0.60675 /_ -135.1    1.0509     1.000        2-3     1.0509 /_ -105.1    1.0509
   -         3      0.60675 /_  104.9    1.0509     1.000        3-1     1.0509 /_  134.9    1.0509
B14 ........ 1      0.59785 /_  -16.1    1.0355     1.000        1-2     1.0355 /_   13.9    1.0355
   -         2      0.59785 /_ -136.1    1.0355     1.000        2-3     1.0355 /_ -106.1    1.0355
   -         3      0.59785 /_  103.9    1.0355     1.000        3-1     1.0355 /_  133.9    1.0355
